 .Wgn file Subbasin: 3 STATION NAME:NYCOOPERSTOWN 7/12/2007 12:00:00 AM AVSWAT2003 -SWAT INTERFACE MAVZ
  LATITUDE =  42.70 LONGITUDE = -74.92
  ELEV [m] = 378.00
  RAIN_YRS =  10.00
 -0.57  0.47  5.51 13.09 19.96 24.53 27.01 25.67 21.69 15.93  8.20  1.38
-11.25-11.18 -6.06 -0.23  5.45 10.62 13.11 12.38  8.52  2.87 -1.58 -8.32
  5.87  5.68  6.28  6.68  5.41  4.26  3.25  3.64  4.86  5.85  6.11  5.69
  7.63  7.67  6.31  5.03  5.17  4.52  4.11  4.26  5.33  5.33  5.56  7.08
 62.60 55.90 73.30 78.40 90.30 99.40 95.20 93.40 92.20 85.20 84.10 74.90
  5.80  5.80  7.10  7.10  7.90 10.20 10.90 11.20 10.90 10.40  8.40  6.90
  1.61  1.02  1.19  1.19  0.36  1.49  2.22  2.59  1.01  3.30  2.86  1.30
  0.38  0.35  0.34  0.33  0.34  0.34  0.32  0.32  0.28  0.28  0.40  0.35
  0.52  0.52  0.50  0.56  0.51  0.48  0.42  0.43  0.47  0.53  0.53  0.54
 13.70 12.23 12.55 12.86 12.70 11.86 11.02 11.15 10.37 11.57 13.79 13.40
  8.90  5.30  9.90 10.70 20.10 29.00 38.10 26.40 21.30 18.80  7.90  6.30
  5.45  8.46 11.69 14.29 18.23 20.32 20.57 18.14 13.87  9.60  5.61  4.44
 -8.11 -8.11 -4.12  1.57  7.13 12.78 15.37 15.00 11.53  5.69  0.00 -6.03
  4.99  4.97  5.09  4.88  4.17  3.81  3.37  3.21  3.61  3.90  4.50  4.69
